data/22000.trafo_75589197_75589197/Loads.dss
New Load.1 bus1=3098019.1.2.3 kV=0.4 Vminpu=0.7 Vmaxpu=1.3 model=1 kW=0.0 kvar=0.0 Phases=3
New Load.2 bus1=3097570.1 kV=0.23094010767585033 Vminpu=0.7 Vmaxpu=1.3 model=1 kW=0.0 kvar=0.0 Phases=1
New Load.3 bus1=3097331.1 kV=0.23094010767585033 Vminpu=0.7 Vmaxpu=1.3 model=1 kW=1.5145331346413045 kvar=0.3075390698060832 Phases=1
New Load.4 bus1=3097512.2 kV=0.23094010767585033 Vminpu=0.7 Vmaxpu=1.3 model=1 kW=2.4374666182857228 kvar=0.49494870684919445 Phases=1
New Load.5 bus1=3098017.2 kV=0.23094010767585033 Vminpu=0.7 Vmaxpu=1.3 model=1 kW=1.3983260897779268 kvar=0.2839422229198901 Phases=1
New Load.6 bus1=3097516.3 kV=0.23094010767585033 Vminpu=0.7 Vmaxpu=1.3 model=1 kW=2.738068405953359 kvar=0.555988503237172 Phases=1
New Load.7 bus1=3098018.3 kV=0.23094010767585033 Vminpu=0.7 Vmaxpu=1.3 model=1 kW=1.1361399078740235 kvar=0.23070304798574012 Phases=1
New Load.8 bus1=3097691.2 kV=0.23094010767585033 Vminpu=0.7 Vmaxpu=1.3 model=1 kW=1.853550253303242 kvar=0.37637943185357553 Phases=1
New Load.9 bus1=3098019.1.2.3 kV=0.4 Vminpu=0.7 Vmaxpu=1.3 model=1 kW=9.15363478062564 kvar=1.8587248184866794 Phases=3
New Load.10 bus1=3097426.1 kV=0.23094010767585033 Vminpu=0.7 Vmaxpu=1.3 model=1 kW=2.056192342442661 kvar=0.4175276630623023 Phases=1
New Load.11 bus1=3097759.1 kV=0.23094010767585033 Vminpu=0.7 Vmaxpu=1.3 model=1 kW=2.2761214587552496 kvar=0.4621861748551568 Phases=1
New Load.12 bus1=3098055.3 kV=0.23094010767585033 Vminpu=0.7 Vmaxpu=1.3 model=1 kW=2.1032513702031683 kvar=0.42708340621008944 Phases=1
New Load.13 bus1=3098056.1 kV=0.23094010767585033 Vminpu=0.7 Vmaxpu=1.3 model=1 kW=1.8525900257310624 kvar=0.37618444932886486 Phases=1
New Load.14 bus1=3097570.1 kV=0.23094010767585033 Vminpu=0.7 Vmaxpu=1.3 model=1 kW=2.22618119873934 kvar=0.45204537254461225 Phases=1
New Load.15 bus1=3097499.2 kV=0.23094010767585033 Vminpu=0.7 Vmaxpu=1.3 model=1 kW=1.0583484687743783 kvar=0.21490682255337445 Phases=1
New Load.16 bus1=3097397.3 kV=0.23094010767585033 Vminpu=0.7 Vmaxpu=1.3 model=1 kW=1.604809547155117 kvar=0.3258704772179808 Phases=1
New Load.17 bus1=3097244.3 kV=0.23094010767585033 Vminpu=0.7 Vmaxpu=1.3 model=1 kW=3.180807504474697 kvar=0.6458905115932212 Phases=1
New Load.18 bus1=3096952.1 kV=0.23094010767585033 Vminpu=0.7 Vmaxpu=1.3 model=1 kW=1.8103328685499376 kvar=0.36760376758946506 Phases=1
New Load.19 bus1=3098057.3 kV=0.23094010767585033 Vminpu=0.7 Vmaxpu=1.3 model=1 kW=1.6192155252525058 kvar=0.32879573583555943 Phases=1
New Load.20 bus1=3097488.1 kV=0.23094010767585033 Vminpu=0.7 Vmaxpu=1.3 model=1 kW=2.1685578358886466 kvar=0.4403444496629232 Phases=1
New Load.21 bus1=3097649.3 kV=0.23094010767585033 Vminpu=0.7 Vmaxpu=1.3 model=1 kW=2.6218612695001706 kvar=0.5323916377528746 Phases=1
New Load.22 bus1=3097717.2 kV=0.23094010767585033 Vminpu=0.7 Vmaxpu=1.3 model=1 kW=0.7606279133621442 kvar=0.15445208532815438 Phases=1
New Load.23 bus1=3097525.1 kV=0.23094010767585033 Vminpu=0.7 Vmaxpu=1.3 model=1 kW=1.6403440122532582 kvar=0.3330860581071552 Phases=1
New Load.24 bus1=3098058.3 kV=0.23094010767585033 Vminpu=0.7 Vmaxpu=1.3 model=1 kW=3.332549106026027 kvar=0.676702957966693 Phases=1
New Load.25 bus1=3098059.3 kV=0.23094010767585033 Vminpu=0.7 Vmaxpu=1.3 model=1 kW=0.7865583625320892 kvar=0.15971748760624152 Phases=1
New Load.26 bus1=3098060.2 kV=0.23094010767585033 Vminpu=0.7 Vmaxpu=1.3 model=1 kW=3.44107313964443 kvar=0.6987397028798457 Phases=1
New Load.27 bus1=3098061.3 kV=0.23094010767585033 Vminpu=0.7 Vmaxpu=1.3 model=1 kW=3.9356731365056588 kvar=0.7991725157920693 Phases=1
New Load.28 bus1=3098062.1 kV=0.23094010767585033 Vminpu=0.7 Vmaxpu=1.3 model=1 kW=2.8859681813178657 kvar=0.5860208335307587 Phases=1
New Load.29 bus1=3098063.1 kV=0.23094010767585033 Vminpu=0.7 Vmaxpu=1.3 model=1 kW=1.8391444583854744 kvar=0.3734542104322054 Phases=1
New Load.30 bus1=3098064.1 kV=0.23094010767585033 Vminpu=0.7 Vmaxpu=1.3 model=1 kW=0.41680874094120346 kvar=0.08463662467606639 Phases=1
New Load.31 bus1=3098065.1 kV=0.23094010767585033 Vminpu=0.7 Vmaxpu=1.3 model=1 kW=1.2590696448203853 kvar=0.2556649957221588 Phases=1
New Load.32 bus1=3098066.3 kV=0.23094010767585033 Vminpu=0.7 Vmaxpu=1.3 model=1 kW=2.618019809672589 kvar=0.5316115960654065 Phases=1
New Load.33 bus1=3098067.2 kV=0.23094010767585033 Vminpu=0.7 Vmaxpu=1.3 model=1 kW=1.4377020147036499 kvar=0.29193784549653246 Phases=1
New Load.34 bus1=3098068.2 kV=0.23094010767585033 Vminpu=0.7 Vmaxpu=1.3 model=1 kW=1.4617117339598038 kvar=0.2968132269308856 Phases=1
New Load.35 bus1=3098069.2 kV=0.23094010767585033 Vminpu=0.7 Vmaxpu=1.3 model=1 kW=1.6451458828326408 kvar=0.3340611195155424 Phases=1
New Load.36 bus1=3098070.2 kV=0.23094010767585033 Vminpu=0.7 Vmaxpu=1.3 model=1 kW=1.8929261782289653 kvar=0.38437505443021797 Phases=1
New Load.37 bus1=3098071.2 kV=0.23094010767585033 Vminpu=0.7 Vmaxpu=1.3 model=1 kW=2.036024266193709 kvar=0.41343236051162574 Phases=1
New Load.38 bus1=3098072.2 kV=0.23094010767585033 Vminpu=0.7 Vmaxpu=1.3 model=1 kW=1.185119757138132 kvar=0.2406488305753654 Phases=1
New Load.39 bus1=3098073.1 kV=0.23094010767585033 Vminpu=0.7 Vmaxpu=1.3 model=1 kW=1.417533846864888 kvar=0.2878425243477517 Phases=1
New Load.40 bus1=3098074.1 kV=0.23094010767585033 Vminpu=0.7 Vmaxpu=1.3 model=1 kW=0.9344582294864054 kvar=0.1897498364979324 Phases=1
New Load.41 bus1=3098075.1 kV=0.23094010767585033 Vminpu=0.7 Vmaxpu=1.3 model=1 kW=2.565198317401278 kvar=0.5208857345921045 Phases=1
New Load.42 bus1=3098076.3 kV=0.23094010767585033 Vminpu=0.7 Vmaxpu=1.3 model=1 kW=2.424021234119756 kvar=0.49221850514874343 Phases=1
New Load.43 bus1=3098173.1 kV=0.23094010767585033 Vminpu=0.7 Vmaxpu=1.3 model=1 kW=4.421629986139543 kvar=0.8978502628046461 Phases=1
New Load.44 bus1=3097747.1 kV=0.23094010767585033 Vminpu=0.7 Vmaxpu=1.3 model=1 kW=2.2751610480034494 kvar=0.46199115513423766 Phases=1
New Load.45 bus1=3097513.2 kV=0.23094010767585033 Vminpu=0.7 Vmaxpu=1.3 model=1 kW=1.9774404925912148 kvar=0.40153641790901756 Phases=1
New Load.46 bus1=3098185.3 kV=0.23094010767585033 Vminpu=0.7 Vmaxpu=1.3 model=1 kW=2.086924753781799 kvar=0.42376814534688106 Phases=1
New Load.47 bus1=3098211.1 kV=0.23094010767585033 Vminpu=0.7 Vmaxpu=1.3 model=1 kW=1.9985689795919668 kvar=0.4058267401806132 Phases=1
New Load.48 bus1=3097322.3 kV=0.23094010767585033 Vminpu=0.7 Vmaxpu=1.3 model=1 kW=2.2012110687313857 kvar=0.44697497138934006 Phases=1
New Load.49 bus1=3098269.3 kV=0.23094010767585033 Vminpu=0.7 Vmaxpu=1.3 model=1 kW=2.1695182466404472 kvar=0.44053946938384236 Phases=1
New Load.50 bus1=3098289.3 kV=0.23094010767585033 Vminpu=0.7 Vmaxpu=1.3 model=1 kW=2.062915034525645 kvar=0.4188927639125279 Phases=1
New Load.51 bus1=3097628.3 kV=0.23094010767585033 Vminpu=0.7 Vmaxpu=1.3 model=1 kW=1.7296601971948902 kvar=0.35122248299434194 Phases=1
New Load.52 bus1=3098335.3 kV=0.23094010767585033 Vminpu=0.7 Vmaxpu=1.3 model=1 kW=1.7162148130289225 kvar=0.3484922812938909 Phases=1
New Load.53 bus1=3098336.2 kV=0.23094010767585033 Vminpu=0.7 Vmaxpu=1.3 model=1 kW=2.163755965309264 kvar=0.4393693882545359 Phases=1
New Load.54 bus1=3098378.2 kV=0.23094010767585033 Vminpu=0.7 Vmaxpu=1.3 model=1 kW=1.610572011665921 kvar=0.3270405955434957 Phases=1
New Load.55 bus1=3097390.3 kV=0.23094010767585033 Vminpu=0.7 Vmaxpu=1.3 model=1 kW=3.115501038789219 kvar=0.6326294681403875 Phases=1
New Load.56 bus1=3098422.1 kV=0.23094010767585033 Vminpu=0.7 Vmaxpu=1.3 model=1 kW=2.4715887469570315 kvar=0.5018775005951714 Phases=1
New Load.57 bus1=3098488.1 kV=0.23094010767585033 Vminpu=0.7 Vmaxpu=1.3 model=1 kW=1.8602731285658467 kvar=0.3777445699000095 Phases=1
New Load.58 bus1=3097687.1 kV=0.23094010767585033 Vminpu=0.7 Vmaxpu=1.3 model=1 kW=2.4715887469570315 kvar=0.5018775005951714 Phases=1
New Load.59 bus1=3097400.1 kV=0.23094010767585033 Vminpu=0.7 Vmaxpu=1.3 model=1 kW=2.4715887469570315 kvar=0.5018775005951714 Phases=1
New Load.60 bus1=3097785.3 kV=0.23094010767585033 Vminpu=0.7 Vmaxpu=1.3 model=1 kW=2.4715887469570315 kvar=0.5018775005951714 Phases=1
New Load.61 bus1=3098536.1 kV=0.23094010767585033 Vminpu=0.7 Vmaxpu=1.3 model=1 kW=2.4715887469570315 kvar=0.5018775005951714 Phases=1
New Load.62 bus1=3097236.1 kV=0.23094010767585033 Vminpu=0.7 Vmaxpu=1.3 model=1 kW=2.4715887469570315 kvar=0.5018775005951714 Phases=1
New Load.63 bus1=3097650.2 kV=0.23094010767585033 Vminpu=0.7 Vmaxpu=1.3 model=1 kW=2.4715887469570315 kvar=0.5018775005951714 Phases=1
